Input Parameters:
   integrator                     = md
   tinit                          = 0
   dt                             = 0.002
   nsteps                         = 500000000000
   init-step                      = 0
   simulation-part                = 1
   comm-mode                      = Linear
   nstcomm                        = 100
   bd-fric                        = 0
   ld-seed                        = -1714175766
   emtol                          = 10
   emstep                         = 0.01
   niter                          = 20
   fcstep                         = 0
   nstcgsteep                     = 1000
   nbfgscorr                      = 10
   rtpi                           = 0.05
   nstxout                        = 250000
   nstvout                        = 250000
   nstfout                        = 0
   nstlog                         = 2500
   nstcalcenergy                  = 100
   nstenergy                      = 2500
   nstxout-compressed             = 2500
   compressed-x-precision         = 1000
   cutoff-scheme                  = Verlet
   nstlist                        = 10
   ns-type                        = Grid
   pbc                            = xyz
   periodic-molecules             = false
   verlet-buffer-tolerance        = 0.005
   rlist                          = 1.2
   coulombtype                    = PME
   coulomb-modifier               = Potential-shift
   rcoulomb-switch                = 0
   rcoulomb                       = 1.2
   epsilon-r                      = 1
   epsilon-rf                     = inf
   vdw-type                       = Cut-off
   vdw-modifier                   = Potential-shift
   rvdw-switch                    = 0
   rvdw                           = 1.2
   DispCorr                       = EnerPres
   table-extension                = 1
   fourierspacing                 = 0.16
   fourier-nx                     = 72
   fourier-ny                     = 52
   fourier-nz                     = 52
   pme-order                      = 4
   ewald-rtol                     = 1e-05
   ewald-rtol-lj                  = 0.001
   lj-pme-comb-rule               = Geometric
   ewald-geometry                 = 0
   epsilon-surface                = 0
   implicit-solvent               = No
   gb-algorithm                   = Still
   nstgbradii                     = 1
   rgbradii                       = 1
   gb-epsilon-solvent             = 80
   gb-saltconc                    = 0
   gb-obc-alpha                   = 1
   gb-obc-beta                    = 0.8
   gb-obc-gamma                   = 4.85
   gb-dielectric-offset           = 0.009
   sa-algorithm                   = Ace-approximation
   sa-surface-tension             = 2.05016
   tcoupl                         = V-rescale
   nsttcouple                     = 10
   nh-chain-length                = 0
   print-nose-hoover-chain-variables = false
   pcoupl                         = Parrinello-Rahman
   pcoupltype                     = Isotropic
   nstpcouple                     = 10
   tau-p                          = 2
   compressibility (3x3):
      compressibility[    0]={ 4.50000e-05,  0.00000e+00,  0.00000e+00}
      compressibility[    1]={ 0.00000e+00,  4.50000e-05,  0.00000e+00}
      compressibility[    2]={ 0.00000e+00,  0.00000e+00,  4.50000e-05}
   ref-p (3x3):
      ref-p[    0]={ 1.00000e+00,  0.00000e+00,  0.00000e+00}
      ref-p[    1]={ 0.00000e+00,  1.00000e+00,  0.00000e+00}
      ref-p[    2]={ 0.00000e+00,  0.00000e+00,  1.00000e+00}
   refcoord-scaling               = No
   posres-com (3):
      posres-com[0]= 0.00000e+00
      posres-com[1]= 0.00000e+00
      posres-com[2]= 0.00000e+00
   posres-comB (3):
      posres-comB[0]= 0.00000e+00
      posres-comB[1]= 0.00000e+00
      posres-comB[2]= 0.00000e+00
   QMMM                           = false
   QMconstraints                  = 0
   QMMMscheme                     = 0
   MMChargeScaleFactor            = 1
qm-opts:
   ngQM                           = 0
   constraint-algorithm           = Lincs
   continuation                   = true
   Shake-SOR                      = false
   shake-tol                      = 0.0001
   lincs-order                    = 4
   lincs-iter                     = 1
   lincs-warnangle                = 30
   nwall                          = 0
   wall-type                      = 9-3
   wall-r-linpot                  = -1
   wall-atomtype[0]               = -1
   wall-atomtype[1]               = -1
   wall-density[0]                = 0
   wall-density[1]                = 0
   wall-ewald-zfac                = 3
   pull                           = false
   awh                            = false
   rotation                       = false
   interactiveMD                  = false
   disre                          = No
   disre-weighting                = Conservative
   disre-mixed                    = false
   dr-fc                          = 1000
   dr-tau                         = 0
   nstdisreout                    = 100
   orire-fc                       = 0
   orire-tau                      = 0
   nstorireout                    = 100
   free-energy                    = no
   cos-acceleration               = 0
   deform (3x3):
      deform[    0]={ 0.00000e+00,  0.00000e+00,  0.00000e+00}
      deform[    1]={ 0.00000e+00,  0.00000e+00,  0.00000e+00}
      deform[    2]={ 0.00000e+00,  0.00000e+00,  0.00000e+00}
   simulated-tempering            = false
   swapcoords                     = no
   userint1                       = 0
   userint2                       = 0
   userint3                       = 0
   userint4                       = 0
   userreal1                      = 0
   userreal2                      = 0
   userreal3                      = 0
   userreal4                      = 0
   applied-forces:
     electric-field:
       x:
         E0                       = 0
         omega                    = 0
         t0                       = 0
         sigma                    = 0
       y:
         E0                       = 0
         omega                    = 0
         t0                       = 0
         sigma                    = 0
       z:
         E0                       = 0
         omega                    = 0
         t0                       = 0
         sigma                    = 0
grpopts:
   nrdf:      8977.8      128613
   ref-t:         300         300
   tau-t:         0.1         0.1
annealing:          No          No
annealing-npoints:           0           0
   acc:	           0           0           0
   nfreeze:           N           N           N
   energygrp-flags[  0]: 0

Changing nstlist from 10 to 100, rlist from 1.2 to 1.341

The -multi flag is deprecated, and may be removed in a future version. Please update your workflows to use -multidir instead.

This is simulation 15 out of 20 running as a composite GROMACS
multi-simulation job. Setup for this simulation:

Using 1 MPI process
Using 1 OpenMP thread

4 GPUs auto-selected for this run.
Mapping of GPU IDs to the 40 GPU tasks in the 20 ranks on this node:
  PP:0,PME:0,PP:0,PME:0,PP:0,PME:0,PP:0,PME:0,PP:0,PME:0,PP:1,PME:1,PP:1,PME:1,PP:1,PME:1,PP:1,PME:1,PP:1,PME:1,PP:2,PME:2,PP:2,PME:2,PP:2,PME:2,PP:2,PME:2,PP:2,PME:2,PP:3,PME:3,PP:3,PME:3,PP:3,PME:3,PP:3,PME:3,PP:3,PME:3

Non-default thread affinity set probably by the OpenMP library,
disabling internal thread affinity
System total charge: -1.156
Will do PME sum in reciprocal space for electrostatic interactions.

Using a Gaussian width (1/beta) of 0.384195 nm for Ewald
Potential shift: LJ r^-12: -1.122e-01 r^-6: -3.349e-01, Ewald -8.333e-06
Initialized non-bonded Ewald correction tables, spacing: 1.02e-03 size: 1176

Long Range LJ corr.: <C6> 2.9706e-04
Generated table with 1170 data points for Ewald.
Tabscale = 500 points/nm
Generated table with 1170 data points for LJ6.
Tabscale = 500 points/nm
Generated table with 1170 data points for LJ12.
Tabscale = 500 points/nm
Generated table with 1170 data points for 1-4 COUL.
Tabscale = 500 points/nm
Generated table with 1170 data points for 1-4 LJ6.
Tabscale = 500 points/nm
Generated table with 1170 data points for 1-4 LJ12.
Tabscale = 500 points/nm

Using GPU 8x8 nonbonded short-range kernels

Using a dual 8x4 pair-list setup updated with dynamic, rolling pruning:
  outer list: updated every 100 steps, buffer 0.141 nm, rlist 1.341 nm
  inner list: updated every  12 steps, buffer 0.003 nm, rlist 1.203 nm
At tolerance 0.005 kJ/mol/ps per atom, equivalent classical 1x1 list would be:
  outer list: updated every 100 steps, buffer 0.293 nm, rlist 1.493 nm
  inner list: updated every  12 steps, buffer 0.053 nm, rlist 1.253 nm

Using Lorentz-Berthelot Lennard-Jones combination rule

Initializing LINear Constraint Solver

The number of constraints is 4558
3 constraints are involved in constraint triangles,
will apply an additional matrix expansion of order 4 for couplings
between constraints inside triangles

Intra-simulation communication will occur every 10 steps.
Center of mass motion removal mode is Linear
We have the following groups for center of mass motion removal:
  0:  rest

There are: 68820 Atoms

Initializing Replica Exchange
Repl  There are 20 replicas:
Multi-checking the number of atoms ... OK
Multi-checking the integrator ... OK
Multi-checking init_step+nsteps ... OK
Multi-checking first exchange step: init_step/-replex ... OK
Multi-checking the temperature coupling ... OK
Multi-checking the number of temperature coupling groups ... OK
Multi-checking the pressure coupling ... OK
Multi-checking free energy ... OK
Multi-checking number of lambda states ... OK

Repl  Using Constant Pressure REMD.

Replica exchange in temperature
 300.0 300.0 300.0 300.0 300.0 300.0 300.0 300.0 300.0 300.0 300.0 300.0 300.0 300.0 300.0 300.0 300.0 300.0 300.0 300.0

Repl  p  1.00  1.00  1.00  1.00  1.00  1.00  1.00  1.00  1.00  1.00  1.00  1.00  1.00  1.00  1.00  1.00  1.00  1.00  1.00  1.00
Replica exchange interval: 500

Replica random seed: 20423526
Replica exchange information below: ex and x = exchange, pr = probability

PLUMED: PLUMED is starting
PLUMED: Version: 2.5.4 (git: Unknown) compiled on May 20 2021 at 12:19:51
PLUMED: Please cite these papers when using PLUMED [1][2]
PLUMED: For further information see the PLUMED web page at http://www.plumed.org
PLUMED: Root: /bgfs01/insite/utsab.shrestha/programs/gmx_plumed4/plumed-2.5.4/
PLUMED: For installed feature, see /bgfs01/insite/utsab.shrestha/programs/gmx_plumed4/plumed-2.5.4//src/config/config.txt
PLUMED: Molecular dynamics engine: gromacs
PLUMED: Precision of reals: 4
PLUMED: Running over 1 node
PLUMED: Number of threads: 1
PLUMED: Cache line size: 512
PLUMED: Number of atoms: 68820
PLUMED: GROMACS-like replica exchange is on
PLUMED: File suffix: .15
PLUMED: FILE: plumed.dat
PLUMED: END FILE: plumed.dat
PLUMED: Timestep: 0.002000
PLUMED: KbT: 2.494339
PLUMED: Relevant bibliography:
PLUMED:   [1] The PLUMED consortium, Nat. Methods 16, 670 (2019)
PLUMED:   [2] Tribello, Bonomi, Branduardi, Camilloni, and Bussi, Comput. Phys. Commun. 185, 604 (2014)
PLUMED: Please read and cite where appropriate!
PLUMED: Finished setup
Started mdrun on rank 0 Thu Feb 10 22:01:20 2022
           Step           Time
              0        0.00000

   Energies (kJ/mol)
          Angle    Proper Dih.  Improper Dih.          LJ-14     Coulomb-14
    9.65352e+03    1.08051e+04    4.20909e+02    3.74767e+03    2.50589e+04
        LJ (SR)  Disper. corr.   Coulomb (SR)   Coul. recip.      Potential
    1.23582e+05   -4.92921e+03   -1.06338e+06    3.36333e+03   -8.91674e+05
    Kinetic En.   Total Energy  Conserved En.    Temperature Pres. DC (bar)
    1.71263e+05   -7.20411e+05   -7.20370e+05    2.99411e+02   -1.18466e+02
   -2.96228e+02    2.79071e-05

	<====  A V E R A G E S  ====>

	Statistics over 59701 steps using 598 frames

   Energies (kJ/mol)
          Angle    Proper Dih.  Improper Dih.          LJ-14     Coulomb-14
    9.15724e+03    1.12101e+04    5.29796e+02    3.94491e+03    2.51206e+04
        LJ (SR)  Disper. corr.   Coulomb (SR)   Coul. recip.      Potential
    1.24915e+05   -4.92907e+03   -1.06277e+06    3.01313e+03   -8.89806e+05
    Kinetic En.   Total Energy  Conserved En.    Temperature Pres. DC (bar)
    1.71562e+05   -7.18244e+05   -7.22789e+05    2.99935e+02   -1.18460e+02
 Pressure (bar)   Constr. rmsd
    1.34808e+00    0.00000e+00

          Box-X          Box-Y          Box-Z
    1.07829e+01    8.02623e+00    7.98910e+00

   Total Virial (kJ/mol)
    5.69762e+04    1.12590e+01   -4.30050e+01
    9.58786e+00    5.72393e+04    2.78587e+01
   -4.49463e+01    2.80542e+01    5.72672e+04

   Pressure (bar)
    5.29655e+00   -2.45561e-01    6.13282e-01
   -1.65229e-01    1.23763e+00   -2.83420e+00
    7.06588e-01   -2.84350e+00   -2.48993e+00

       T-!Water        T-Water
    2.99503e+02    2.99965e+02

Replica exchange statistics
Repl  41 attempts, 21 odd, 20 even
Repl  average probabilities:
Repl     0    1    2    3    4    5    6    7    8    9   10   11   12   13   14   15   16   17   18   19
Repl      .34  .39  .25  .21  .30  .22  .48  .24  .40  .22  .30  .39  .34  .33  .39  .26  .33  .37  .31
Repl  number of exchanges:
Repl     0    1    2    3    4    5    6    7    8    9   10   11   12   13   14   15   16   17   18   19
Repl        6    8    5    4    5    3   10    3    9    6    5    8    6    8    8    6    5    8    7
Repl  average number of exchanges:
Repl     0    1    2    3    4    5    6    7    8    9   10   11   12   13   14   15   16   17   18   19
Repl      .29  .40  .24  .20  .24  .15  .48  .15  .43  .30  .24  .40  .29  .40  .38  .30  .24  .40  .33

Repl                                                                                Empirical Transition Matrix
Repl       1       2       3       4       5       6       7       8       9      10      11      12      13      14      15      16      17      18      19      20
Repl  0.8537  0.1463  0.0000  0.0000  0.0000  0.0000  0.0000  0.0000  0.0000  0.0000  0.0000  0.0000  0.0000  0.0000  0.0000  0.0000  0.0000  0.0000  0.0000  0.0000  0
Repl  0.1463  0.6585  0.1951  0.0000  0.0000  0.0000  0.0000  0.0000  0.0000  0.0000  0.0000  0.0000  0.0000  0.0000  0.0000  0.0000  0.0000  0.0000  0.0000  0.0000  1
Repl  0.0000  0.1951  0.6829  0.1220  0.0000  0.0000  0.0000  0.0000  0.0000  0.0000  0.0000  0.0000  0.0000  0.0000  0.0000  0.0000  0.0000  0.0000  0.0000  0.0000  2
Repl  0.0000  0.0000  0.1220  0.7805  0.0976  0.0000  0.0000  0.0000  0.0000  0.0000  0.0000  0.0000  0.0000  0.0000  0.0000  0.0000  0.0000  0.0000  0.0000  0.0000  3
Repl  0.0000  0.0000  0.0000  0.0976  0.7805  0.1220  0.0000  0.0000  0.0000  0.0000  0.0000  0.0000  0.0000  0.0000  0.0000  0.0000  0.0000  0.0000  0.0000  0.0000  4
Repl  0.0000  0.0000  0.0000  0.0000  0.1220  0.8049  0.0732  0.0000  0.0000  0.0000  0.0000  0.0000  0.0000  0.0000  0.0000  0.0000  0.0000  0.0000  0.0000  0.0000  5
Repl  0.0000  0.0000  0.0000  0.0000  0.0000  0.0732  0.6829  0.2439  0.0000  0.0000  0.0000  0.0000  0.0000  0.0000  0.0000  0.0000  0.0000  0.0000  0.0000  0.0000  6
Repl  0.0000  0.0000  0.0000  0.0000  0.0000  0.0000  0.2439  0.6829  0.0732  0.0000  0.0000  0.0000  0.0000  0.0000  0.0000  0.0000  0.0000  0.0000  0.0000  0.0000  7
Repl  0.0000  0.0000  0.0000  0.0000  0.0000  0.0000  0.0000  0.0732  0.7073  0.2195  0.0000  0.0000  0.0000  0.0000  0.0000  0.0000  0.0000  0.0000  0.0000  0.0000  8
Repl  0.0000  0.0000  0.0000  0.0000  0.0000  0.0000  0.0000  0.0000  0.2195  0.6341  0.1463  0.0000  0.0000  0.0000  0.0000  0.0000  0.0000  0.0000  0.0000  0.0000  9
Repl  0.0000  0.0000  0.0000  0.0000  0.0000  0.0000  0.0000  0.0000  0.0000  0.1463  0.7317  0.1220  0.0000  0.0000  0.0000  0.0000  0.0000  0.0000  0.0000  0.0000 10
Repl  0.0000  0.0000  0.0000  0.0000  0.0000  0.0000  0.0000  0.0000  0.0000  0.0000  0.1220  0.6829  0.1951  0.0000  0.0000  0.0000  0.0000  0.0000  0.0000  0.0000 11
Repl  0.0000  0.0000  0.0000  0.0000  0.0000  0.0000  0.0000  0.0000  0.0000  0.0000  0.0000  0.1951  0.6585  0.1463  0.0000  0.0000  0.0000  0.0000  0.0000  0.0000 12
Repl  0.0000  0.0000  0.0000  0.0000  0.0000  0.0000  0.0000  0.0000  0.0000  0.0000  0.0000  0.0000  0.1463  0.6585  0.1951  0.0000  0.0000  0.0000  0.0000  0.0000 13
Repl  0.0000  0.0000  0.0000  0.0000  0.0000  0.0000  0.0000  0.0000  0.0000  0.0000  0.0000  0.0000  0.0000  0.1951  0.6098  0.1951  0.0000  0.0000  0.0000  0.0000 14
Repl  0.0000  0.0000  0.0000  0.0000  0.0000  0.0000  0.0000  0.0000  0.0000  0.0000  0.0000  0.0000  0.0000  0.0000  0.1951  0.6585  0.1463  0.0000  0.0000  0.0000 15
Repl  0.0000  0.0000  0.0000  0.0000  0.0000  0.0000  0.0000  0.0000  0.0000  0.0000  0.0000  0.0000  0.0000  0.0000  0.0000  0.1463  0.7317  0.1220  0.0000  0.0000 16
Repl  0.0000  0.0000  0.0000  0.0000  0.0000  0.0000  0.0000  0.0000  0.0000  0.0000  0.0000  0.0000  0.0000  0.0000  0.0000  0.0000  0.1220  0.6829  0.1951  0.0000 17
Repl  0.0000  0.0000  0.0000  0.0000  0.0000  0.0000  0.0000  0.0000  0.0000  0.0000  0.0000  0.0000  0.0000  0.0000  0.0000  0.0000  0.0000  0.1951  0.6341  0.1707 18
Repl  0.0000  0.0000  0.0000  0.0000  0.0000  0.0000  0.0000  0.0000  0.0000  0.0000  0.0000  0.0000  0.0000  0.0000  0.0000  0.0000  0.0000  0.0000  0.1707  0.8293 19
